Circuit: * C:\Users\paczek\Desktop\3.3V_to_5V\Draft1.asc

Limiting rise time of source v7 to 0.0002
Limiting fall time of source v7 to 0.0002
Limiting rise time of source v4 to 0.0002
Limiting fall time of source v4 to 0.0002
Limiting rise time of source v3 to 0.0002
Limiting fall time of source v3 to 0.0002
WARNING: Less than two connections to node NC_01.  This node is used by V4.
Instance "m:m2:1": Width narrower than recommended for a level 3 MOSFET.
Instance "m:m1:1": Width narrower than recommended for a level 3 MOSFET.
.OP point found by inspection.

Date: Mon Sep 21 19:15:53 2015
Total elapsed time: 0.153 seconds.

tnom = 27
temp = 27
method = modified trap
totiter = 4677
traniter = 4677
tranpoints = 2052
accept = 1750
rejected = 302
matrix size = 42
fillins = 6
solver = Normal
Matrix Compiler1: 3.32 KB object code size  1.8/1.1/[0.7]
Matrix Compiler2: 3.56 KB object code size  0.9/1.3/[0.6]


